Mass Spectrum: Triolein
Formula: C57 H104 O6
CAS: 122-32-7
Molecular weight: 884
Origin: Japan AIST/NIMC Database- Spectrum MS-NW-9071
m/z	RELATIVE INTENSITY
14	10
15	40
17	30
18	169
25	10
26	109
27	739
28	389
29	1229
30	40
31	50
37	20
38	30
39	709
40	149
41	3639
42	799
43	3419
44	249
45	169
46	10
51	50
52	40
53	409
54	1399
55	6459
56	1669
57	3669
58	239
59	119
60	369
61	70
65	129
66	189
67	3549
68	1529
69	5689
70	1509
71	1769
72	119
73	509
74	90
75	30
77	189
78	109
79	949
80	709
81	3939
82	2129
83	5379
84	1769
85	1219
86	99
87	229
91	409
92	169
93	919
94	669
95	3669
96	2099
97	4229
98	3149
99	729
100	299
101	299
105	329
107	779
108	589
109	2299
110	1349
111	2409
112	1259
113	609
114	309
116	339
117	249
119	389
120	199
121	1369
122	459
123	1529
124	959
125	1139
126	539
127	629
129	949
131	129
133	499
134	369
135	1339
136	459
137	1339
138	799
139	739
140	269
141	509
143	209
145	99
147	439
148	319
149	849
150	439
151	1289
152	859
153	669
154	229
155	549
157	219
158	339
161	319
162	169
163	529
164	479
165	959
166	659
167	529
168	209
169	409
171	689
172	239
175	239
177	339
178	349
179	589
180	449
181	389
182	169
183	299
185	609
186	149
187	129
189	179
190	90
191	239
192	159
193	379
194	239
195	249
196	119
197	159
199	239
201	119
203	119
205	169
206	119
207	399
208	239
209	249
210	109
211	149
213	299
214	149
215	99
218	109
219	129
220	669
221	569
222	399
223	199
225	139
226	99
227	529
228	129
229	159
233	159
234	239
235	309
236	319
237	209
238	99
239	249
240	199
241	379
242	229
243	179
245	419
246	869
247	799
248	239
249	169
250	99
251	119
253	189
254	119
255	209
256	169
259	109
260	329
261	389
262	3369
263	1729
264	6269
265	5889
266	1109
267	459
268	109
269	129
275	119
276	209
277	269
278	349
279	689
280	509
281	509
282	319
283	209
284	199
285	70
289	40
290	50
291	90
292	70
293	99
294	70
295	229
296	90
297	169
298	80
299	50
303	30
304	30
305	60
306	40
307	99
308	50
309	129
310	50
311	109
312	50
313	109
317	40
318	99
319	90
320	199
321	229
322	189
323	389
324	109
325	209
326	60
327	70
331	30
332	30
333	70
334	50
335	169
336	329
337	929
338	2209
339	5949
340	1379
341	729
342	149
343	30
347	30
348	20
349	50
350	40
351	149
352	109
353	279
354	119
355	239
356	119
357	119
358	30
359	30
363	40
364	30
365	109
366	50
367	209
368	90
369	60
370	20
374	30
375	30
376	30
377	40
378	40
379	80
380	339
381	339
382	129
383	70
387	20
388	30
389	40
390	50
391	90
392	50
393	2129
394	599
395	259
396	90
397	40
401	30
402	30
403	90
404	70
405	60
406	40
407	209
408	80
409	109
410	60
411	30
415	30
416	30
417	80
418	50
419	109
420	60
421	129
422	70
423	80
424	60
425	50
429	30
430	20
431	40
432	30
433	99
434	60
435	249
436	209
437	109
438	60
439	30
443	20
444	10
445	20
446	20
447	259
448	139
449	1459
450	559
451	319
452	99
453	40
454	10
457	10
459	20
460	20
461	99
462	90
463	279
464	219
465	279
466	99
467	50
468	10
469	10
473	30
474	30
475	129
476	129
477	239
478	189
479	209
480	90
481	60
482	20
485	10
487	30
488	20
489	139
490	139
491	239
492	259
493	379
494	159
495	99
496	30
499	10
501	30
502	30
503	279
504	229
505	419
506	569
507	319
508	149
509	119
510	40
511	30
515	20
516	30
517	179
518	169
519	239
520	359
521	189
522	90
523	60
526	20
527	30
528	70
529	199
530	90
531	109
532	70
533	80
534	99
535	60
536	40
543	20
544	20
545	80
546	80
547	80
548	40
549	30
550	10
551	10
557	10
559	179
560	90
561	70
562	30
563	30
564	10
573	70
574	50
575	60
576	129
577	239
578	99
579	30
587	60
589	159
590	129
591	149
592	10
593	10
600	709
602	6989
603	9999
604	4139
605	1829
606	269
607	30
614	60
616	369
617	509
618	449
619	579
620	299
621	109
629	20
631	60
632	60
633	60
634	40
635	20
644	10
645	10
646	10
647	20
648	10
649	10
657	10
658	10
660	10
662	20
676	10
716	10
730	20
744	30
758	30
759	20
773	60
786	30
800	20
866	169
884	369
