Mass Spectrum: Methane, tribromo-
Formula: C H Br3
CAS: 75-25-2
Molecular weight: 250
Origin: Japan AIST/NIMC Database- Spectrum MS-IW-3681
m/z	RELATIVE INTENSITY
12	30
13	70
79	929
80	179
81	919
82	169
85	10
86	30
87	10
91	1769
92	1049
93	1749
94	1019
95	10
158	139
160	289
162	139
170	50
171	5159
172	159
173	9999
174	159
175	4909
176	50
250	439
251	10
252	1279
253	20
254	1239
255	10
256	409
