Mass Spectrum: Methane, triiodo-
Formula: C H I3
CAS: 75-47-8
Molecular weight: 394
Origin: Japan AIST/NIMC Database- Spectrum MS-NW-8704
m/z	RELATIVE INTENSITY
63	40
64	10
127	1859
128	349
139	499
140	2029
141	60
219	30
221	30
254	929
255	10
266	139
267	9999
268	169
394	2589
395	20
