Mass Spectrum: Naphthalene
Formula: C10 H8
CAS: 91-20-3
Molecular weight: 128
Origin: Japan AIST/NIMC Database- Spectrum MS-NW-1434
m/z	RELATIVE INTENSITY
26	10
27	30
28	10
37	30
38	50
39	139
49	20
50	279
51	719
52	80
53	10
61	70
62	129
63	459
64	679
65	10
73	20
74	269
75	319
76	239
77	339
78	229
79	10
85	20
86	50
87	80
88	10
89	50
97	10
98	70
99	40
100	40
101	209
102	609
103	60
113	10
125	30
126	519
127	1079
128	9999
129	1099
130	50
